Circuit: * Z:\home\ss\Dropbox\Wriju\Notes\EC\EC_Assgn\Assignment.asc

.OP point found by inspection.

Date: Sun Aug 20 22:43:02 2017
