Circuit: * Z:\home\ss\Dropbox\Wriju\Notes\EC\EC_Assgn\Assignment.asc

.OP point found by inspection.

Date: Sun Aug 20 21:21:04 2017
Total elapsed time: 2.590 seconds.

tnom = 27
temp = 27
method = modified trap
totiter = 200066
traniter = 200066
tranpoints = 100034
accept = 100034
rejected = 0
matrix size = 8
fillins = 5
solver = Normal
Matrix Compiler1: 572 bytes object code size  0.6/0.4/[0.4]
Matrix Compiler2: 656 bytes object code size  0.3/0.4/[0.3]

