Circuit: * Z:\home\ss\Dropbox\Wriju\Notes\EC\EC_Assgn\Assignment.asc

.OP point found by inspection.

Date: Sun Aug 20 21:38:46 2017
Total elapsed time: 8.941 seconds.

tnom = 27
temp = 27
method = modified trap
totiter = 758856
traniter = 758856
tranpoints = 379429
accept = 379429
rejected = 0
matrix size = 10
fillins = 5
solver = Normal
Matrix Compiler1: 672 bytes object code size  0.5/0.3/[0.3]
Matrix Compiler2: 802 bytes object code size  0.3/0.3/[0.2]

